Circuit: * C:\users\dario\Escritorio\Proyecto_2019\Spice\ClaseH\Clase_H.asc

Warning: Multiple definitions of model "tip42c" Type: BJT
Warning: Multiple definitions of model "tip41c" Type: BJT
Warning: Multiple definitions of model "q2n3055" Type: BJT
Warning: Multiple definitions of model "tip3055" Type: BJT
Warning: Multiple definitions of model "tip2955" Type: BJT
Warning: Multiple definitions of model "mje2955t" Type: BJT
Warning: Multiple definitions of model "mje2955" Type: BJT
Warning: Multiple definitions of model "2sc2412k" Type: BJT
Warning: Multiple definitions of model "2sa1037ak" Type: BJT
Warning: Multiple definitions of model "bc817-16" Type: BJT
Warning: Multiple definitions of model "bc848b" Type: BJT
Warning: Multiple definitions of model "bc807-16" Type: BJT
Warning: Multiple definitions of model "bcx17" Type: BJT
Warning: Multiple definitions of model "bc858b" Type: BJT
Warning: Multiple definitions of model "2sd1898" Type: BJT
Warning: Multiple definitions of model "d45h11" Type: BJT
Warning: Multiple definitions of model "bc856b" Type: BJT
Warning: Multiple definitions of model "bc556b" Type: BJT
Warning: Multiple definitions of model "bc846b" Type: BJT
Warning: Multiple definitions of model "bc546b" Type: BJT
Warning: Multiple definitions of model "bc327-40" Type: BJT
Warning: Multiple definitions of model "bc327-25" Type: BJT
Warning: Multiple definitions of model "bc807-40" Type: BJT
Warning: Multiple definitions of model "bc807-25" Type: BJT
Warning: Multiple definitions of model "bc857c" Type: BJT
Warning: Multiple definitions of model "bc857b" Type: BJT
Warning: Multiple definitions of model "bc857a" Type: BJT
Warning: Multiple definitions of model "bc557c" Type: BJT
Warning: Multiple definitions of model "bc557b" Type: BJT
Warning: Multiple definitions of model "bc337-40" Type: BJT
Warning: Multiple definitions of model "bc337-25" Type: BJT
Warning: Multiple definitions of model "bc817-40" Type: BJT
Warning: Multiple definitions of model "bc817-25" Type: BJT
Warning: Multiple definitions of model "bc847c" Type: BJT
Warning: Multiple definitions of model "bc847b" Type: BJT
Warning: Multiple definitions of model "bc847a" Type: BJT
Warning: Multiple definitions of model "bc547c" Type: BJT
Warning: Multiple definitions of model "bc547b" Type: BJT
Warning: Multiple definitions of model "2n3019" Type: BJT
Warning: Multiple definitions of model "bcw68g" Type: BJT
Warning: Multiple definitions of model "bcw68f" Type: BJT
Warning: Multiple definitions of model "bcw60d" Type: BJT
Warning: Multiple definitions of model "bcw60c" Type: BJT
Warning: Multiple definitions of model "bcw60b" Type: BJT
Warning: Multiple definitions of model "bcw60a" Type: BJT
Warning: Multiple definitions of model "2n3055" Type: BJT
Warning: Multiple definitions of model "2n5771" Type: BJT
Warning: Multiple definitions of model "2n5769" Type: BJT
Warning: Multiple definitions of model "2n2369" Type: BJT
Warning: Multiple definitions of model "2n5401" Type: BJT
Warning: Multiple definitions of model "2n5550" Type: BJT
Warning: Multiple definitions of model "2n4403" Type: BJT
Warning: Multiple definitions of model "2n4401" Type: BJT
Warning: Multiple definitions of model "2n2905a" Type: BJT
Warning: Multiple definitions of model "2n2219a" Type: BJT
Warning: Multiple definitions of model "2n5087" Type: BJT
Warning: Multiple definitions of model "2n5210" Type: BJT
Warning: Multiple definitions of model "2n5089" Type: BJT
Warning: Multiple definitions of model "2n3391a" Type: BJT
Warning: Multiple definitions of model "2n4126" Type: BJT
Warning: Multiple definitions of model "2n4124" Type: BJT
Warning: Multiple definitions of model "ztx1048a" Type: BJT
Warning: Multiple definitions of model "ztx849" Type: BJT
Warning: Multiple definitions of model "fzt849" Type: BJT
Warning: Multiple definitions of model "2n3906" Type: BJT
Warning: Multiple definitions of model "2n3904" Type: BJT
Warning: Multiple definitions of model "2n2907" Type: BJT
Warning: Multiple definitions of model "2n2222" Type: BJT
Early termination of direct N-R iteration.
Direct Newton iteration failed to find .op point.  (Use ".option noopiter" to skip.)
Starting Gmin stepping
Gmin = 10
Gmin = 1.07374
Gmin = 0.115292
Gmin = 0.0123794
vernier = 0.5
vernier = 0.25
vernier = 0.125
Gmin = 0.0106238
vernier = 0.166667
vernier = 0.222222
Gmin = 0.00701804
vernier = 0.296296
Gmin = 0.00368202
vernier = 0.395061
vernier = 0.526748
Gmin = 0.00127571
vernier = 0.702331
vernier = 0.936441
Gmin = 0.000247783
vernier = 1
Gmin = 2.80024e-005
vernier = 0.5
vernier = 0.25
Gmin = 1.83822e-005
vernier = 0.333333
vernier = 0.444444
Gmin = 7.46098e-006
vernier = 0.592592
vernier = 0.790123
Gmin = 1.83959e-006
vernier = 1
Gmin = 2.34484e-007
Gmin = 2.51776e-008
Gmin = 2.70342e-009
Gmin = 2.90278e-010
Gmin = 3.11683e-011
Gmin = 3.34667e-012
Gmin = 3.59346e-013
Gmin = 0
Gmin stepping succeeded in finding the operating point.


Date: Sun Jul 28 15:41:05 2019
Total elapsed time: 6.941 seconds.

tnom = 27
temp = 27
method = modified trap
totiter = 132096
traniter = 130443
tranpoints = 30855
accept = 22205
rejected = 8650
matrix size = 108
fillins = 210
solver = Normal
Thread vector: 35.3/20.6[2] 11.2/10.5[1] 5.4/4.9[2] 2.7/3.2[1]  2592/500
Matrix Compiler1: 17.17 KB object code size  10.7/4.3/[3.9]
Matrix Compiler2:     975 opcodes  4.5/[4.1]/8.6

